<?xml version="1.0" encoding="utf-8"?>
<!DOCTYPE network SYSTEM "http://www.matsim.org/files/dtd/network_v1.dtd">

<network name="simple network">
    <nodes>
        <node id="0" x="-20000" y="0"/>
        <node id="1" x="-15000" y="0"/>
        <node id="2" x="-865" y="5925"/>
        <node id="3" x="-2498" y="4331"/>
    </nodes>
    <links capperiod="01:00:00">
        <link id="1" from="1" to="2" length="10000.00" capacity="36000" freespeed="10000.00" permlanes="1"/>
        <link id="2" from="1" to="3" length="10000.00" capacity="3600" freespeed="5000.00" permlanes="1"/>
        <link id="3" from="2" to="2" length="10000.00" capacity="3600" freespeed="10000.00" permlanes="1"/>
        <link id="4" from="2" to="3" length="10000.00" capacity="3600" freespeed="2500.00" permlanes="1"/>
        <link id="5" from="3" to="1" length="10000.00" capacity="3600" freespeed="5000.00" permlanes="1"/>
    </links>
</network>
