<?xml version="1.0" encoding="utf-8"?>
<!DOCTYPE population SYSTEM "http://www.matsim.org/files/dtd/population_v6.dtd">

<population>

	<attributes>
		<attribute name="coordinateReferenceSystem" class="java.lang.String">Atlantis</attribute>
	</attributes>


<!-- ====================================================================== -->

	<person id="1">
		<attributes>
			<attribute name="vehicles" class="org.matsim.vehicles.PersonVehicles">{"car":"1"}</attribute>
		</attributes>
		<plan score="53.10347962692449" selected="yes">
			<activity type="h" link="1" x="-25000.0" y="0.0" end_time="06:00:00" >
			</activity>
			<leg mode="car">
				<attributes>
					<attribute name="routingMode" class="java.lang.String">car</attribute>
				</attributes>
				<route type="links" start_link="1" end_link="20" trav_time="undefined" distance="25000.0" vehicleRefId="1_car">1 6 15 20</route>
			</leg>
			<activity type="w" link="20" x="10000.0" y="0.0" max_dur="00:10:00" >
			</activity>
			<leg mode="car">
				<attributes>
					<attribute name="routingMode" class="java.lang.String">car</attribute>
				</attributes>
				<route type="links" start_link="20" end_link="20" trav_time="undefined" distance="0.0" vehicleRefId="1_car">20</route>
			</leg>
			<activity type="w" link="20" x="10000.0" y="0.0" max_dur="03:30:00" >
			</activity>
			<leg mode="car">
				<attributes>
					<attribute name="routingMode" class="java.lang.String">car</attribute>
				</attributes>
				<route type="links" start_link="20" end_link="1" trav_time="undefined" distance="65000.0" vehicleRefId="1_car">20 21 22 23 1</route>
			</leg>
			<activity type="h" link="1" x="-25000.0" y="0.0" >
			</activity>
		</plan>

		<plan score="52.9312834015057" selected="no">
			<activity type="h" link="1" x="-25000.0" y="0.0" end_time="06:00:00" >
			</activity>
			<leg mode="car" dep_time="06:00:00" trav_time="00:08:59">
				<attributes>
					<attribute name="routingMode" class="java.lang.String">car</attribute>
				</attributes>
				<route type="links" start_link="1" end_link="20" trav_time="00:08:59" distance="25000.0" vehicleRefId="1_car">1 8 17 20</route>
			</leg>
			<activity type="w" link="20" x="10000.0" y="0.0" max_dur="00:10:00" >
			</activity>
			<leg mode="car" dep_time="06:18:59" trav_time="00:00:00">
				<attributes>
					<attribute name="routingMode" class="java.lang.String">car</attribute>
				</attributes>
				<route type="links" start_link="20" end_link="20" trav_time="00:00:00" distance="0.0" vehicleRefId="1_car">20</route>
			</leg>
			<activity type="w" link="20" x="10000.0" y="0.0" max_dur="03:30:00" >
			</activity>
			<leg mode="car" dep_time="09:48:59" trav_time="00:32:59">
				<attributes>
					<attribute name="routingMode" class="java.lang.String">car</attribute>
				</attributes>
				<route type="links" start_link="20" end_link="1" trav_time="00:32:59" distance="65000.0" vehicleRefId="1_car">20 21 22 23 1</route>
			</leg>
			<activity type="h" link="1" x="-25000.0" y="0.0" >
			</activity>
		</plan>

	</person>

<!-- ====================================================================== -->

	<person id="10">
		<attributes>
			<attribute name="vehicles" class="org.matsim.vehicles.PersonVehicles">{"car":"10"}</attribute>
		</attributes>
		<plan score="63.308377053480584" selected="no">
			<activity type="h" link="1" x="-25000.0" y="0.0" end_time="06:00:00" >
			</activity>
			<leg mode="car">
				<attributes>
					<attribute name="routingMode" class="java.lang.String">car</attribute>
				</attributes>
				<route type="links" start_link="1" end_link="20" trav_time="undefined" distance="25000.0" vehicleRefId="10_car">1 6 15 20</route>
			</leg>
			<activity type="w" link="20" x="10000.0" y="0.0" max_dur="00:30:00" >
			</activity>
			<leg mode="car">
				<attributes>
					<attribute name="routingMode" class="java.lang.String">car</attribute>
				</attributes>
				<route type="links" start_link="20" end_link="1" trav_time="undefined" distance="65000.0" vehicleRefId="10_car">20 21 22 23 1</route>
			</leg>
			<activity type="h" link="1" x="-25000.0" y="0.0" >
			</activity>
		</plan>

		<plan score="64.0898010185399" selected="yes">
			<activity type="h" link="1" x="-25000.0" y="0.0" end_time="06:00:00" >
			</activity>
			<leg mode="car" dep_time="06:00:00" trav_time="00:08:59">
				<attributes>
					<attribute name="routingMode" class="java.lang.String">car</attribute>
				</attributes>
				<route type="links" start_link="1" end_link="20" trav_time="00:08:59" distance="25000.0" vehicleRefId="10_car">1 3 12 20</route>
			</leg>
			<activity type="w" link="20" x="10000.0" y="0.0" max_dur="00:30:00" >
			</activity>
			<leg mode="car" dep_time="06:38:59" trav_time="00:32:59">
				<attributes>
					<attribute name="routingMode" class="java.lang.String">car</attribute>
				</attributes>
				<route type="links" start_link="20" end_link="1" trav_time="00:32:59" distance="65000.0" vehicleRefId="10_car">20 21 22 23 1</route>
			</leg>
			<activity type="h" link="1" x="-25000.0" y="0.0" >
			</activity>
		</plan>

	</person>

<!-- ====================================================================== -->

	<person id="100">
		<attributes>
			<attribute name="vehicles" class="org.matsim.vehicles.PersonVehicles">{"car":"100"}</attribute>
		</attributes>
		<plan score="63.87794722263723" selected="yes">
			<activity type="h" link="1" x="-25000.0" y="0.0" end_time="06:00:00" >
			</activity>
			<leg mode="car">
				<attributes>
					<attribute name="routingMode" class="java.lang.String">car</attribute>
				</attributes>
				<route type="links" start_link="1" end_link="20" trav_time="undefined" distance="25000.0" vehicleRefId="100_car">1 6 15 20</route>
			</leg>
			<activity type="w" link="20" x="10000.0" y="0.0" max_dur="00:30:00" >
			</activity>
			<leg mode="car">
				<attributes>
					<attribute name="routingMode" class="java.lang.String">car</attribute>
				</attributes>
				<route type="links" start_link="20" end_link="1" trav_time="undefined" distance="65000.0" vehicleRefId="100_car">20 21 22 23 1</route>
			</leg>
			<activity type="h" link="1" x="-25000.0" y="0.0" >
			</activity>
		</plan>

	</person>

<!-- ====================================================================== -->

	<person id="11">
		<attributes>
			<attribute name="vehicles" class="org.matsim.vehicles.PersonVehicles">{"car":"11"}</attribute>
		</attributes>
		<plan score="63.74773473354126" selected="no">
			<activity type="h" link="1" x="-25000.0" y="0.0" end_time="06:00:00" >
			</activity>
			<leg mode="car">
				<attributes>
					<attribute name="routingMode" class="java.lang.String">car</attribute>
				</attributes>
				<route type="links" start_link="1" end_link="20" trav_time="undefined" distance="25000.0" vehicleRefId="11_car">1 6 15 20</route>
			</leg>
			<activity type="w" link="20" x="10000.0" y="0.0" max_dur="00:30:00" >
			</activity>
			<leg mode="car">
				<attributes>
					<attribute name="routingMode" class="java.lang.String">car</attribute>
				</attributes>
				<route type="links" start_link="20" end_link="1" trav_time="undefined" distance="65000.0" vehicleRefId="11_car">20 21 22 23 1</route>
			</leg>
			<activity type="h" link="1" x="-25000.0" y="0.0" >
			</activity>
		</plan>

		<plan score="64.07959291832974" selected="yes">
			<activity type="h" link="1" x="-25000.0" y="0.0" end_time="06:00:00" >
			</activity>
			<leg mode="car" dep_time="06:00:00" trav_time="00:09:02">
				<attributes>
					<attribute name="routingMode" class="java.lang.String">car</attribute>
				</attributes>
				<route type="links" start_link="1" end_link="20" trav_time="00:09:02" distance="25000.0" vehicleRefId="11_car">1 4 13 20</route>
			</leg>
			<activity type="w" link="20" x="10000.0" y="0.0" max_dur="00:30:00" >
			</activity>
			<leg mode="car" dep_time="06:39:02" trav_time="00:32:59">
				<attributes>
					<attribute name="routingMode" class="java.lang.String">car</attribute>
				</attributes>
				<route type="links" start_link="20" end_link="1" trav_time="00:32:59" distance="65000.0" vehicleRefId="11_car">20 21 22 23 1</route>
			</leg>
			<activity type="h" link="1" x="-25000.0" y="0.0" >
			</activity>
		</plan>

	</person>

<!-- ====================================================================== -->

	<person id="12">
		<attributes>
			<attribute name="vehicles" class="org.matsim.vehicles.PersonVehicles">{"car":"12"}</attribute>
		</attributes>
		<plan score="63.88560589686993" selected="yes">
			<activity type="h" link="1" x="-25000.0" y="0.0" end_time="06:00:00" >
			</activity>
			<leg mode="car">
				<attributes>
					<attribute name="routingMode" class="java.lang.String">car</attribute>
				</attributes>
				<route type="links" start_link="1" end_link="20" trav_time="undefined" distance="25000.0" vehicleRefId="12_car">1 6 15 20</route>
			</leg>
			<activity type="w" link="20" x="10000.0" y="0.0" max_dur="00:30:00" >
			</activity>
			<leg mode="car">
				<attributes>
					<attribute name="routingMode" class="java.lang.String">car</attribute>
				</attributes>
				<route type="links" start_link="20" end_link="1" trav_time="undefined" distance="65000.0" vehicleRefId="12_car">20 21 22 23 1</route>
			</leg>
			<activity type="h" link="1" x="-25000.0" y="0.0" >
			</activity>
		</plan>

	</person>

<!-- ====================================================================== -->

	<person id="13">
		<attributes>
			<attribute name="vehicles" class="org.matsim.vehicles.PersonVehicles">{"car":"13"}</attribute>
		</attributes>
		<plan score="63.64814131030751" selected="no">
			<activity type="h" link="1" x="-25000.0" y="0.0" end_time="06:00:00" >
			</activity>
			<leg mode="car">
				<attributes>
					<attribute name="routingMode" class="java.lang.String">car</attribute>
				</attributes>
				<route type="links" start_link="1" end_link="20" trav_time="undefined" distance="25000.0" vehicleRefId="13_car">1 6 15 20</route>
			</leg>
			<activity type="w" link="20" x="10000.0" y="0.0" max_dur="00:30:00" >
			</activity>
			<leg mode="car">
				<attributes>
					<attribute name="routingMode" class="java.lang.String">car</attribute>
				</attributes>
				<route type="links" start_link="20" end_link="1" trav_time="undefined" distance="65000.0" vehicleRefId="13_car">20 21 22 23 1</route>
			</leg>
			<activity type="h" link="1" x="-25000.0" y="0.0" >
			</activity>
		</plan>

		<plan score="64.143390687361" selected="yes">
			<activity type="h" link="1" x="-25000.0" y="0.0" end_time="06:00:00" >
			</activity>
			<leg mode="car" dep_time="06:00:00" trav_time="00:08:59">
				<attributes>
					<attribute name="routingMode" class="java.lang.String">car</attribute>
				</attributes>
				<route type="links" start_link="1" end_link="20" trav_time="00:08:59" distance="25000.0" vehicleRefId="13_car">1 8 17 20</route>
			</leg>
			<activity type="w" link="20" x="10000.0" y="0.0" max_dur="00:30:00" >
			</activity>
			<leg mode="car" dep_time="06:38:59" trav_time="00:32:59">
				<attributes>
					<attribute name="routingMode" class="java.lang.String">car</attribute>
				</attributes>
				<route type="links" start_link="20" end_link="1" trav_time="00:32:59" distance="65000.0" vehicleRefId="13_car">20 21 22 23 1</route>
			</leg>
			<activity type="h" link="1" x="-25000.0" y="0.0" >
			</activity>
		</plan>

	</person>

<!-- ====================================================================== -->

	<person id="14">
		<attributes>
			<attribute name="vehicles" class="org.matsim.vehicles.PersonVehicles">{"car":"14"}</attribute>
		</attributes>
		<plan score="63.35437152459339" selected="no">
			<activity type="h" link="1" x="-25000.0" y="0.0" end_time="06:00:00" >
			</activity>
			<leg mode="car">
				<attributes>
					<attribute name="routingMode" class="java.lang.String">car</attribute>
				</attributes>
				<route type="links" start_link="1" end_link="20" trav_time="undefined" distance="25000.0" vehicleRefId="14_car">1 6 15 20</route>
			</leg>
			<activity type="w" link="20" x="10000.0" y="0.0" max_dur="00:30:00" >
			</activity>
			<leg mode="car">
				<attributes>
					<attribute name="routingMode" class="java.lang.String">car</attribute>
				</attributes>
				<route type="links" start_link="20" end_link="1" trav_time="undefined" distance="65000.0" vehicleRefId="14_car">20 21 22 23 1</route>
			</leg>
			<activity type="h" link="1" x="-25000.0" y="0.0" >
			</activity>
		</plan>

		<plan score="64.09745697938938" selected="yes">
			<activity type="h" link="1" x="-25000.0" y="0.0" end_time="06:00:00" >
			</activity>
			<leg mode="car" dep_time="06:00:00" trav_time="00:08:59">
				<attributes>
					<attribute name="routingMode" class="java.lang.String">car</attribute>
				</attributes>
				<route type="links" start_link="1" end_link="20" trav_time="00:08:59" distance="25000.0" vehicleRefId="14_car">1 3 12 20</route>
			</leg>
			<activity type="w" link="20" x="10000.0" y="0.0" max_dur="00:30:00" >
			</activity>
			<leg mode="car" dep_time="06:38:59" trav_time="00:32:59">
				<attributes>
					<attribute name="routingMode" class="java.lang.String">car</attribute>
				</attributes>
				<route type="links" start_link="20" end_link="1" trav_time="00:32:59" distance="65000.0" vehicleRefId="14_car">20 21 22 23 1</route>
			</leg>
			<activity type="h" link="1" x="-25000.0" y="0.0" >
			</activity>
		</plan>

		<plan score="64.05151974448374" selected="no">
			<activity type="h" link="1" x="-25000.0" y="0.0" end_time="06:00:00" >
			</activity>
			<leg mode="car" dep_time="06:00:00" trav_time="00:09:02">
				<attributes>
					<attribute name="routingMode" class="java.lang.String">car</attribute>
				</attributes>
				<route type="links" start_link="1" end_link="20" trav_time="00:09:02" distance="25000.0" vehicleRefId="14_car">1 9 18 20</route>
			</leg>
			<activity type="w" link="20" x="10000.0" y="0.0" max_dur="00:30:00" >
			</activity>
			<leg mode="car" dep_time="06:39:02" trav_time="00:32:59">
				<attributes>
					<attribute name="routingMode" class="java.lang.String">car</attribute>
				</attributes>
				<route type="links" start_link="20" end_link="1" trav_time="00:32:59" distance="65000.0" vehicleRefId="14_car">20 21 22 23 1</route>
			</leg>
			<activity type="h" link="1" x="-25000.0" y="0.0" >
			</activity>
		</plan>

	</person>

<!-- ====================================================================== -->

	<person id="15">
		<attributes>
			<attribute name="vehicles" class="org.matsim.vehicles.PersonVehicles">{"car":"15"}</attribute>
		</attributes>
		<plan score="63.69410957099073" selected="no">
			<activity type="h" link="1" x="-25000.0" y="0.0" end_time="06:00:00" >
			</activity>
			<leg mode="car">
				<attributes>
					<attribute name="routingMode" class="java.lang.String">car</attribute>
				</attributes>
				<route type="links" start_link="1" end_link="20" trav_time="undefined" distance="25000.0" vehicleRefId="15_car">1 6 15 20</route>
			</leg>
			<activity type="w" link="20" x="10000.0" y="0.0" max_dur="00:30:00" >
			</activity>
			<leg mode="car">
				<attributes>
					<attribute name="routingMode" class="java.lang.String">car</attribute>
				</attributes>
				<route type="links" start_link="20" end_link="1" trav_time="undefined" distance="65000.0" vehicleRefId="15_car">20 21 22 23 1</route>
			</leg>
			<activity type="h" link="1" x="-25000.0" y="0.0" >
			</activity>
		</plan>

		<plan score="64.10766477479154" selected="yes">
			<activity type="h" link="1" x="-25000.0" y="0.0" end_time="06:00:00" >
			</activity>
			<leg mode="car" dep_time="06:00:00" trav_time="00:08:59">
				<attributes>
					<attribute name="routingMode" class="java.lang.String">car</attribute>
				</attributes>
				<route type="links" start_link="1" end_link="20" trav_time="00:08:59" distance="25000.0" vehicleRefId="15_car">1 9 18 20</route>
			</leg>
			<activity type="w" link="20" x="10000.0" y="0.0" max_dur="00:30:00" >
			</activity>
			<leg mode="car" dep_time="06:38:59" trav_time="00:32:59">
				<attributes>
					<attribute name="routingMode" class="java.lang.String">car</attribute>
				</attributes>
				<route type="links" start_link="20" end_link="1" trav_time="00:32:59" distance="65000.0" vehicleRefId="15_car">20 21 22 23 1</route>
			</leg>
			<activity type="h" link="1" x="-25000.0" y="0.0" >
			</activity>
		</plan>

		<plan score="64.06172832378394" selected="no">
			<activity type="h" link="1" x="-25000.0" y="0.0" end_time="06:00:00" >
			</activity>
			<leg mode="car" dep_time="06:00:00" trav_time="00:09:02">
				<attributes>
					<attribute name="routingMode" class="java.lang.String">car</attribute>
				</attributes>
				<route type="links" start_link="1" end_link="20" trav_time="00:09:02" distance="25000.0" vehicleRefId="15_car">1 4 13 20</route>
			</leg>
			<activity type="w" link="20" x="10000.0" y="0.0" max_dur="00:30:00" >
			</activity>
			<leg mode="car" dep_time="06:39:02" trav_time="00:32:59">
				<attributes>
					<attribute name="routingMode" class="java.lang.String">car</attribute>
				</attributes>
				<route type="links" start_link="20" end_link="1" trav_time="00:32:59" distance="65000.0" vehicleRefId="15_car">20 21 22 23 1</route>
			</leg>
			<activity type="h" link="1" x="-25000.0" y="0.0" >
			</activity>
		</plan>

		<plan score="64.06172832378394" selected="no">
			<activity type="h" link="1" x="-25000.0" y="0.0" end_time="06:00:00" >
			</activity>
			<leg mode="car" dep_time="06:00:00" trav_time="00:09:02">
				<attributes>
					<attribute name="routingMode" class="java.lang.String">car</attribute>
				</attributes>
				<route type="links" start_link="1" end_link="20" trav_time="00:09:02" distance="25000.0" vehicleRefId="15_car">1 9 18 20</route>
			</leg>
			<activity type="w" link="20" x="10000.0" y="0.0" max_dur="00:30:00" >
			</activity>
			<leg mode="car" dep_time="06:39:02" trav_time="00:32:59">
				<attributes>
					<attribute name="routingMode" class="java.lang.String">car</attribute>
				</attributes>
				<route type="links" start_link="20" end_link="1" trav_time="00:32:59" distance="65000.0" vehicleRefId="15_car">20 21 22 23 1</route>
			</leg>
			<activity type="h" link="1" x="-25000.0" y="0.0" >
			</activity>
		</plan>

	</person>

<!-- ====================================================================== -->

	<person id="16">
		<attributes>
			<attribute name="vehicles" class="org.matsim.vehicles.PersonVehicles">{"car":"16"}</attribute>
		</attributes>
		<plan score="63.895817309804876" selected="yes">
			<activity type="h" link="1" x="-25000.0" y="0.0" end_time="06:00:00" >
			</activity>
			<leg mode="car">
				<attributes>
					<attribute name="routingMode" class="java.lang.String">car</attribute>
				</attributes>
				<route type="links" start_link="1" end_link="20" trav_time="undefined" distance="25000.0" vehicleRefId="16_car">1 6 15 20</route>
			</leg>
			<activity type="w" link="20" x="10000.0" y="0.0" max_dur="00:30:00" >
			</activity>
			<leg mode="car">
				<attributes>
					<attribute name="routingMode" class="java.lang.String">car</attribute>
				</attributes>
				<route type="links" start_link="20" end_link="1" trav_time="undefined" distance="65000.0" vehicleRefId="16_car">20 21 22 23 1</route>
			</leg>
			<activity type="h" link="1" x="-25000.0" y="0.0" >
			</activity>
		</plan>

	</person>

<!-- ====================================================================== -->

	<person id="17">
		<attributes>
			<attribute name="vehicles" class="org.matsim.vehicles.PersonVehicles">{"car":"17"}</attribute>
		</attributes>
		<plan score="63.37992247349537" selected="no">
			<activity type="h" link="1" x="-25000.0" y="0.0" end_time="06:00:00" >
			</activity>
			<leg mode="car">
				<attributes>
					<attribute name="routingMode" class="java.lang.String">car</attribute>
				</attributes>
				<route type="links" start_link="1" end_link="20" trav_time="undefined" distance="25000.0" vehicleRefId="17_car">1 6 15 20</route>
			</leg>
			<activity type="w" link="20" x="10000.0" y="0.0" max_dur="00:30:00" >
			</activity>
			<leg mode="car">
				<attributes>
					<attribute name="routingMode" class="java.lang.String">car</attribute>
				</attributes>
				<route type="links" start_link="20" end_link="1" trav_time="undefined" distance="65000.0" vehicleRefId="17_car">20 21 22 23 1</route>
			</leg>
			<activity type="h" link="1" x="-25000.0" y="0.0" >
			</activity>
		</plan>

		<plan score="64.10766477479154" selected="yes">
			<activity type="h" link="1" x="-25000.0" y="0.0" end_time="06:00:00" >
			</activity>
			<leg mode="car" dep_time="06:00:00" trav_time="00:08:59">
				<attributes>
					<attribute name="routingMode" class="java.lang.String">car</attribute>
				</attributes>
				<route type="links" start_link="1" end_link="20" trav_time="00:08:59" distance="25000.0" vehicleRefId="17_car">1 3 12 20</route>
			</leg>
			<activity type="w" link="20" x="10000.0" y="0.0" max_dur="00:30:00" >
			</activity>
			<leg mode="car" dep_time="06:38:59" trav_time="00:32:59">
				<attributes>
					<attribute name="routingMode" class="java.lang.String">car</attribute>
				</attributes>
				<route type="links" start_link="20" end_link="1" trav_time="00:32:59" distance="65000.0" vehicleRefId="17_car">20 21 22 23 1</route>
			</leg>
			<activity type="h" link="1" x="-25000.0" y="0.0" >
			</activity>
		</plan>

		<plan score="64.07959291832974" selected="no">
			<activity type="h" link="1" x="-25000.0" y="0.0" end_time="06:00:00" >
			</activity>
			<leg mode="car" dep_time="06:00:00" trav_time="00:08:59">
				<attributes>
					<attribute name="routingMode" class="java.lang.String">car</attribute>
				</attributes>
				<route type="links" start_link="1" end_link="20" trav_time="00:08:59" distance="25000.0" vehicleRefId="17_car">1 5 14 20</route>
			</leg>
			<activity type="w" link="20" x="10000.0" y="0.0" max_dur="00:30:00" >
			</activity>
			<leg mode="car" dep_time="06:38:59" trav_time="00:32:59">
				<attributes>
					<attribute name="routingMode" class="java.lang.String">car</attribute>
				</attributes>
				<route type="links" start_link="20" end_link="1" trav_time="00:32:59" distance="65000.0" vehicleRefId="17_car">20 21 22 23 1</route>
			</leg>
			<activity type="h" link="1" x="-25000.0" y="0.0" >
			</activity>
		</plan>

	</person>

<!-- ====================================================================== -->

	<person id="18">
		<attributes>
			<attribute name="vehicles" class="org.matsim.vehicles.PersonVehicles">{"car":"18"}</attribute>
		</attributes>
		<plan score="63.906028548231376" selected="yes">
			<activity type="h" link="1" x="-25000.0" y="0.0" end_time="06:00:00" >
			</activity>
			<leg mode="car">
				<attributes>
					<attribute name="routingMode" class="java.lang.String">car</attribute>
				</attributes>
				<route type="links" start_link="1" end_link="20" trav_time="undefined" distance="25000.0" vehicleRefId="18_car">1 6 15 20</route>
			</leg>
			<activity type="w" link="20" x="10000.0" y="0.0" max_dur="00:30:00" >
			</activity>
			<leg mode="car">
				<attributes>
					<attribute name="routingMode" class="java.lang.String">car</attribute>
				</attributes>
				<route type="links" start_link="20" end_link="1" trav_time="undefined" distance="65000.0" vehicleRefId="18_car">20 21 22 23 1</route>
			</leg>
			<activity type="h" link="1" x="-25000.0" y="0.0" >
			</activity>
		</plan>

	</person>

<!-- ====================================================================== -->

	<person id="19">
		<attributes>
			<attribute name="vehicles" class="org.matsim.vehicles.PersonVehicles">{"car":"19"}</attribute>
		</attributes>
		<plan score="63.47189681559861" selected="no">
			<activity type="h" link="1" x="-25000.0" y="0.0" end_time="06:00:00" >
			</activity>
			<leg mode="car">
				<attributes>
					<attribute name="routingMode" class="java.lang.String">car</attribute>
				</attributes>
				<route type="links" start_link="1" end_link="20" trav_time="undefined" distance="25000.0" vehicleRefId="19_car">1 6 15 20</route>
			</leg>
			<activity type="w" link="20" x="10000.0" y="0.0" max_dur="00:30:00" >
			</activity>
			<leg mode="car">
				<attributes>
					<attribute name="routingMode" class="java.lang.String">car</attribute>
				</attributes>
				<route type="links" start_link="20" end_link="1" trav_time="undefined" distance="65000.0" vehicleRefId="19_car">20 21 22 23 1</route>
			</leg>
			<activity type="h" link="1" x="-25000.0" y="0.0" >
			</activity>
		</plan>

		<plan score="64.0898010185399" selected="yes">
			<activity type="h" link="1" x="-25000.0" y="0.0" end_time="06:00:00" >
			</activity>
			<leg mode="car" dep_time="06:00:00" trav_time="00:08:59">
				<attributes>
					<attribute name="routingMode" class="java.lang.String">car</attribute>
				</attributes>
				<route type="links" start_link="1" end_link="20" trav_time="00:08:59" distance="25000.0" vehicleRefId="19_car">1 4 13 20</route>
			</leg>
			<activity type="w" link="20" x="10000.0" y="0.0" max_dur="00:30:00" >
			</activity>
			<leg mode="car" dep_time="06:38:59" trav_time="00:32:59">
				<attributes>
					<attribute name="routingMode" class="java.lang.String">car</attribute>
				</attributes>
				<route type="links" start_link="20" end_link="1" trav_time="00:32:59" distance="65000.0" vehicleRefId="19_car">20 21 22 23 1</route>
			</leg>
			<activity type="h" link="1" x="-25000.0" y="0.0" >
			</activity>
		</plan>

	</person>

<!-- ====================================================================== -->

	<person id="2">
		<attributes>
			<attribute name="vehicles" class="org.matsim.vehicles.PersonVehicles">{"car":"2"}</attribute>
		</attributes>
		<plan score="85.7778096885166" selected="yes">
			<activity type="h" link="1" x="-25000.0" y="0.0" end_time="05:59:00" >
			</activity>
			<leg mode="car">
				<attributes>
					<attribute name="routingMode" class="java.lang.String">car</attribute>
				</attributes>
				<route type="links" start_link="1" end_link="20" trav_time="undefined" distance="25000.0" vehicleRefId="2_car">1 6 15 20</route>
			</leg>
			<activity type="w" link="20" x="10000.0" y="0.0" max_dur="02:30:00" >
			</activity>
			<leg mode="car">
				<attributes>
					<attribute name="routingMode" class="java.lang.String">car</attribute>
				</attributes>
				<route type="links" start_link="20" end_link="1" trav_time="undefined" distance="65000.0" vehicleRefId="2_car">20 21 22 23 1</route>
			</leg>
			<activity type="h" link="1" x="-25000.0" y="0.0" >
			</activity>
		</plan>

	</person>

<!-- ====================================================================== -->

	<person id="20">
		<attributes>
			<attribute name="vehicles" class="org.matsim.vehicles.PersonVehicles">{"car":"20"}</attribute>
		</attributes>
		<plan score="63.7860354718932" selected="no">
			<activity type="h" link="1" x="-25000.0" y="0.0" end_time="06:00:00" >
			</activity>
			<leg mode="car">
				<attributes>
					<attribute name="routingMode" class="java.lang.String">car</attribute>
				</attributes>
				<route type="links" start_link="1" end_link="20" trav_time="undefined" distance="25000.0" vehicleRefId="20_car">1 6 15 20</route>
			</leg>
			<activity type="w" link="20" x="10000.0" y="0.0" max_dur="00:30:00" >
			</activity>
			<leg mode="car">
				<attributes>
					<attribute name="routingMode" class="java.lang.String">car</attribute>
				</attributes>
				<route type="links" start_link="20" end_link="1" trav_time="undefined" distance="65000.0" vehicleRefId="20_car">20 21 22 23 1</route>
			</leg>
			<activity type="h" link="1" x="-25000.0" y="0.0" >
			</activity>
		</plan>

		<plan score="64.09745697938938" selected="yes">
			<activity type="h" link="1" x="-25000.0" y="0.0" end_time="06:00:00" >
			</activity>
			<leg mode="car" dep_time="06:00:00" trav_time="00:09:02">
				<attributes>
					<attribute name="routingMode" class="java.lang.String">car</attribute>
				</attributes>
				<route type="links" start_link="1" end_link="20" trav_time="00:09:02" distance="25000.0" vehicleRefId="20_car">1 4 13 20</route>
			</leg>
			<activity type="w" link="20" x="10000.0" y="0.0" max_dur="00:30:00" >
			</activity>
			<leg mode="car" dep_time="06:39:02" trav_time="00:32:59">
				<attributes>
					<attribute name="routingMode" class="java.lang.String">car</attribute>
				</attributes>
				<route type="links" start_link="20" end_link="1" trav_time="00:32:59" distance="65000.0" vehicleRefId="20_car">20 21 22 23 1</route>
			</leg>
			<activity type="h" link="1" x="-25000.0" y="0.0" >
			</activity>
		</plan>

		<plan score="64.06938464392" selected="no">
			<activity type="h" link="1" x="-25000.0" y="0.0" end_time="06:00:00" >
			</activity>
			<leg mode="car" dep_time="06:00:00" trav_time="00:09:02">
				<attributes>
					<attribute name="routingMode" class="java.lang.String">car</attribute>
				</attributes>
				<route type="links" start_link="1" end_link="20" trav_time="00:09:02" distance="25000.0" vehicleRefId="20_car">1 9 18 20</route>
			</leg>
			<activity type="w" link="20" x="10000.0" y="0.0" max_dur="00:30:00" >
			</activity>
			<leg mode="car" dep_time="06:39:02" trav_time="00:32:59">
				<attributes>
					<attribute name="routingMode" class="java.lang.String">car</attribute>
				</attributes>
				<route type="links" start_link="20" end_link="1" trav_time="00:32:59" distance="65000.0" vehicleRefId="20_car">20 21 22 23 1</route>
			</leg>
			<activity type="h" link="1" x="-25000.0" y="0.0" >
			</activity>
		</plan>

	</person>

<!-- ====================================================================== -->

	<person id="21">
		<attributes>
			<attribute name="vehicles" class="org.matsim.vehicles.PersonVehicles">{"car":"21"}</attribute>
		</attributes>
		<plan score="63.41824684170545" selected="no">
			<activity type="h" link="1" x="-25000.0" y="0.0" end_time="06:00:00" >
			</activity>
			<leg mode="car">
				<attributes>